**Mass on springs on structure)
**<img src="eos.png">

*node, nset=Nall
1, 0.000000e+00, 0.000000e+00, 2.000000e-01
2, 0.000000e+00, 0.000000e+00, 0.000000e+00
3, 0.000000e+00, 1.000000e+00, 2.000000e-01
4, 0.000000e+00, 1.000000e+00, 0.000000e+00
5, 6.000000e+00, 0.000000e+00, 2.000000e-01
6, 6.000000e+00, 0.000000e+00, 0.000000e+00
7, 6.000000e+00, 1.000000e+00, 2.000000e-01
8, 6.000000e+00, 1.000000e+00, 0.000000e+00
9, 5.000000e+00, 0.000000e+00, 1.500000e+00
10, 5.000000e+00, 0.000000e+00, 5.000000e-01
11, 5.000000e+00, 1.000000e+00, 1.500000e+00
12, 5.000000e+00, 1.000000e+00, 5.000000e-01
13, 6.000000e+00, 0.000000e+00, 1.500000e+00
14, 6.000000e+00, 0.000000e+00, 5.000000e-01
15, 6.000000e+00, 1.000000e+00, 1.500000e+00
16, 6.000000e+00, 1.000000e+00, 5.000000e-01
17, 5.000000e+00, 2.000000e+00, 1.300000e+00
18, 5.000000e+00, 2.000000e+00, 3.000000e-01
19, 5.000000e+00, 3.000000e+00, 1.300000e+00
20, 5.000000e+00, 3.000000e+00, 3.000000e-01
** ... 100 like lines cut
*nset, nset=fixed
1, 2, 3, 4, 45, 46, 47, 
48, 
*element, elset=Eall,type=C3D20
95, 1, 2, 4, 3, 30, 25, 35, 40, 45, 48, 47, 46, 101, 
111, 110, 116, 59, 53, 65, 71, 
96, 30, 25, 35, 40, 31, 26, 36, 41, 101, 111, 110, 116, 102, 
112, 109, 117, 60, 54, 66, 72, 
97, 31, 26, 36, 41, 32, 27, 37, 42, 102, 112, 109, 117, 103, 
113, 108, 118, 61, 55, 67, 73, 
98, 32, 27, 37, 42, 33, 28, 38, 43, 103, 113, 108, 118, 104, 
114, 107, 119, 62, 56, 68, 74, 
99, 33, 28, 38, 43, 34, 29, 39, 44, 104, 114, 107, 119, 105, 
115, 106, 120, 63, 57, 69, 75, 
100, 34, 29, 39, 44, 5, 6, 8, 7, 105, 115, 106, 120, 49, 
52, 51, 50, 64, 58, 70, 76, 
101, 9, 10, 12, 11, 13, 14, 16, 15, 77, 80, 79, 78, 81, 
84, 83, 82, 86, 85, 87, 88, 
102, 17, 18, 20, 19, 21, 22, 24, 23, 89, 92, 91, 90, 93, 
96, 95, 94, 98, 97, 99, 100, 

*elset, elset=beam
95, 96, 97, 98, 99, 100, 
*elset, elset=mass1
101, 
*elset, elset=mass2
102,

**additional nodes
*node,nset=solidbase
151, 5.000000e+00, 2.000000e+00, 0
152, 5.000000e+00, 3.000000e+00, 0
153, 6.000000e+00, 2.000000e+00, 0
154, 6.000000e+00, 3.000000e+00, 0

*nset,NSET=lateralsupport_y
11,12,15,16,19,20,23,24,
*nset,NSET=lateralsupport_x
9,11,17,19,18,20,10,12




*ELEMENT,TYPE=SPRINGA,elset=spr
200,151,18
201,152,20
202,153,22
203,154,24
204,5,14
205,34,10
206,7,16
207,44,12

*MATERIAL,NAME=steel
*ELASTIC
2e11,0.3

*DENSITY
7850


*SOLID SECTION,MATERIAL=steel,ELSET=Eall

*SPRING,elset=spr

1000.,



*BOUNDARY
fixed,1,3,0
solidbase,1,3,0
lateralsupport_x,1,1,0
lateralsupport_y,2,2,0


*STEP
*FREQUENCY
3


*NODE FILE
U


*END STEP














