** 1st bending form has frequency 9.71 Hz (both directions)


*NODE, NSET=Nall
       1,0.000000000000e+00,0.000000000000e+00,5.000000000000e-02
       2,0.000000000000e+00,0.000000000000e+00,0.000000000000e+00
       3,0.000000000000e+00,5.000000000000e-02,5.000000000000e-02
       4,0.000000000000e+00,5.000000000000e-02,0.000000000000e+00
       5,1.000000000000e+00,0.000000000000e+00,5.000000000000e-02
       6,1.000000000000e+00,0.000000000000e+00,0.000000000000e+00
       7,1.000000000000e+00,5.000000000000e-02,5.000000000000e-02
       8,1.000000000000e+00,5.000000000000e-02,0.000000000000e+00
       9,1.000000000000e+00,-7.500000000000e-02,1.250000000000e-01
      10,1.000000000000e+00,-7.500000000000e-02,-7.500000000000e-02
      11,1.000000000000e+00,1.250000000000e-01,1.250000000000e-01
      12,1.000000000000e+00,1.250000000000e-01,-7.500000000000e-02
      13,1.200000000000e+00,-7.500000000000e-02,1.250000000000e-01
      14,1.200000000000e+00,-7.500000000000e-02,-7.500000000000e-02
      15,1.200000000000e+00,1.250000000000e-01,1.250000000000e-01
      16,1.200000000000e+00,1.250000000000e-01,-7.500000000000e-02
      17,5.000000000000e-02,0.000000000000e+00,0.000000000000e+00
      18,1.000000000000e-01,0.000000000000e+00,0.000000000000e+00
      19,1.500000000000e-01,0.000000000000e+00,0.000000000000e+00
      20,2.000000000000e-01,0.000000000000e+00,0.000000000000e+00
** ... 653 like lines cut
*ELEMENT, TYPE=C3D20, ELSET=Eall
   315,     1,     2,     4,     3,    36,    17,    55,    74,   210,   213,
         212,   211,   346,   384,   383,   403,   238,   218,   258,   278
   316,    36,    17,    55,    74,    37,    18,    56,    75,   346,   384,
         383,   403,   347,   385,   382,   404,   239,   219,   259,   279
   317,    37,    18,    56,    75,    38,    19,    57,    76,   347,   385,
         382,   404,   348,   386,   381,   405,   240,   220,   260,   280
   318,    38,    19,    57,    76,    39,    20,    58,    77,   348,   386,
         381,   405,   349,   387,   380,   406,   241,   221,   261,   281
   319,    39,    20,    58,    77,    40,    21,    59,    78,   349,   387,
         380,   406,   350,   388,   379,   407,   242,   222,   262,   282
   320,    40,    21,    59,    78,    41,    22,    60,    79,   350,   388,
         379,   407,   351,   389,   378,   408,   243,   223,   263,   283
   321,    41,    22,    60,    79,    42,    23,    61,    80,   351,   389,
         378,   408,   352,   390,   377,   409,   244,   224,   264,   284
   322,    42,    23,    61,    80,    43,    24,    62,    81,   352,   390,
         377,   409,   353,   391,   376,   410,   245,   225,   265,   285
   323,    43,    24,    62,    81,    44,    25,    63,    82,   353,   391,
         376,   410,   354,   392,   375,   411,   246,   226,   266,   286
   324,    44,    25,    63,    82,    45,    26,    64,    83,   354,   392,
         375,   411,   355,   393,   374,   412,   247,   227,   267,   287
** ... 148 like lines cut
** Names based on C3D20
*ELSET,ELSET=C3D20 
315, 
316, 
317, 
318, 
319, 
320, 
321, 
322, 
323, 
324, 
325, 
326, 
327, 
328, 
329, 
330, 
331, 
332, 
333, 
334, 
** ... 64 like lines cut
** Names based on tie1
*NSET,NSET=tie1 
9, 
10, 
11, 
12, 
93, 
94, 
95, 
96, 
97, 
98, 
99, 
100, 
101, 
102, 
103, 
104, 
129, 
130, 
131, 
132, 
** ... 45 like lines cut
** Names based on tie2
*NSET,NSET=tie2 
5, 
6, 
7, 
8, 
214, 
215, 
216, 
217, 
** Names based on load
*NSET,NSET=load 
9, 
11, 
13, 
15, 
96, 
97, 
98, 
108, 
109, 
110, 
120, 
121, 
122, 
126, 
127, 
128, 
174, 
175, 
176, 
177, 
** ... 45 like lines cut
** Names based on mass
*ELSET,ELSET=mass 
335, 
336, 
337, 
338, 
339, 
340, 
341, 
342, 
343, 
344, 
345, 
346, 
347, 
348, 
349, 
350, 
351, 
352, 
353, 
354, 
** ... 44 like lines cut
** Names based on beam
*ELSET,ELSET=beam 
315, 
316, 
317, 
318, 
319, 
320, 
321, 
322, 
323, 
324, 
325, 
326, 
327, 
328, 
329, 
330, 
331, 
332, 
333, 
334, 
** Names based on fixed
*NSET,NSET=fixed 
1, 
2, 
3, 
4, 
210, 
211, 
212, 
213, 
** Surfaces based on all
*SURFACE, NAME=all
315, S1
315, S3
315, S6
315, S4
315, S5
334, S2
334, S3
334, S6
334, S4
334, S5
335, S1
335, S3
335, S6
383, S1
383, S3
383, S4
347, S1
347, S6
347, S5
395, S1
** ... 158 like lines cut
** Surfaces based on beam
*SURFACE, NAME=beam
** Surfaces based on load
*SURFACE, NAME=load
335, S6
347, S6
338, S6
350, S6
339, S6
343, S6
342, S6
346, S6
336, S6
337, S6
348, S6
349, S6
344, S6
345, S6
340, S6
341, S6
** Surfaces based on fixed
*SURFACE, NAME=fixed
315, S1
** Surfaces based on mass
*SURFACE, NAME=mass
** Surfaces based on tie1
*SURFACE, NAME=tie1
335, S1
383, S1
347, S1
395, S1
367, S1
351, S1
339, S1
343, S1
379, S1
363, S1
387, S1
391, S1
371, S1
375, S1
355, S1
359, S1
** Surfaces based on C3D20
*SURFACE, NAME=C3D20
** Surfaces based on tie2
*SURFACE, NAME=tie2
334, S2

*MATERIAL,NAME=steel-no-dens
*ELASTIC
2.0000E+11,0.3


*DENSITY
0.0000E+00
*EXPANSION
0.0000E+00

*SOLID SECTION,MATERIAL=steel-no-dens,ELSET=beam


*MATERIAL,NAME=mass
*ELASTIC
2.0000E+11,0.3


*DENSITY
7.8500E+03
*EXPANSION
0.0000E+00

*SOLID SECTION,MATERIAL=mass,ELSET=mass

*BOUNDARY
fixed,1,1,0
fixed,2,2,0
fixed,3,3,0

*TIE,NAME=T0,POSITION TOLERANCE=0
tie2,tie1



*STEP
**modal with 3 forms output
*FREQUENCY
3


*NODE FILE
U


*END STEP


