** 1st bending form has frequency 0.7 Hz (both directions)

*NODE, NSET=Nall
       1,0.000000000000e+00,0.000000000000e+00,0.000000000000e+00
       2,1.000000000000e+00,0.000000000000e+00,0.000000000000e+00
       3,1.200000000000e+00,0.000000000000e+00,0.000000000000e+00
       4,5.000000000000e-02,0.000000000000e+00,0.000000000000e+00
       5,1.000000000000e-01,0.000000000000e+00,0.000000000000e+00
       6,1.500000000000e-01,0.000000000000e+00,0.000000000000e+00
       7,2.000000000000e-01,0.000000000000e+00,0.000000000000e+00
       8,2.500000000000e-01,0.000000000000e+00,0.000000000000e+00
       9,3.000000000000e-01,0.000000000000e+00,0.000000000000e+00
      10,3.500000000000e-01,0.000000000000e+00,0.000000000000e+00
      11,4.000000000000e-01,0.000000000000e+00,0.000000000000e+00
      12,4.500000000000e-01,0.000000000000e+00,0.000000000000e+00
      13,5.000000000000e-01,0.000000000000e+00,0.000000000000e+00
      14,5.500000000000e-01,0.000000000000e+00,0.000000000000e+00
      15,6.000000000000e-01,0.000000000000e+00,0.000000000000e+00
      16,6.500000000000e-01,0.000000000000e+00,0.000000000000e+00
      17,7.000000000000e-01,0.000000000000e+00,0.000000000000e+00
      18,7.500000000000e-01,0.000000000000e+00,0.000000000000e+00
      19,8.000000000000e-01,0.000000000000e+00,0.000000000000e+00
      20,8.500000000000e-01,0.000000000000e+00,0.000000000000e+00
** ... 29 like lines cut
*ELEMENT, TYPE=B32R, ELSET=Eall
     1,      1,     26,      4
     2,      4,     27,      5
     3,      5,     28,      6
     4,      6,     29,      7
     5,      7,     30,      8
     6,      8,     31,      9
     7,      9,     32,     10
     8,     10,     33,     11
     9,     11,     34,     12
    10,     12,     35,     13
    11,     13,     36,     14
    12,     14,     37,     15
    13,     15,     38,     16
    14,     16,     39,     17
    15,     17,     40,     18
    16,     18,     41,     19
    17,     19,     42,     20
    18,     20,     43,     21
    19,     21,     44,     22
    20,     22,     45,      2
** ... 4 like lines cut
** Names based on load
*NSET,NSET=load 
2, 
3, 
** Names based on mass
*ELSET,ELSET=mass 
21, 
22, 
23, 
24, 
** Names based on beam
*ELSET,ELSET=beam 
1, 
2, 
3, 
4, 
5, 
6, 
7, 
8, 
9, 
10, 
11, 
12, 
13, 
14, 
15, 
16, 
17, 
18, 
19, 
20, 
** Names based on B32
*ELSET,ELSET=B32 
1, 
2, 
3, 
4, 
5, 
6, 
7, 
8, 
9, 
10, 
11, 
12, 
13, 
14, 
15, 
16, 
17, 
18, 
19, 
20, 
** ... 4 like lines cut
** Names based on fixed
*NSET,NSET=fixed 
1, 

*MATERIAL,NAME=steel-no-dens
*ELASTIC
2.0000E+11,0.3


*DENSITY
0.0000E+00
*EXPANSION
0.0000E+00



*MATERIAL,NAME=steel
*ELASTIC
2.0000E+11,0.3


*DENSITY
7.8500E+03
*EXPANSION
0.0000E+00


*BEAM SECTION,MATERIAL=steel-no-dens,ELSET=beam,OFFSET1=0.0000E+00,OFFSET2=0.0000E+00,SECTION=rect
1.91E-02,1.91E-02
0,1,0

*BEAM SECTION,MATERIAL=steel,ELSET=mass,OFFSET1=0.0000E+00,OFFSET2=0.0000E+00,SECTION=rect
4.0000E-01,4.0000E-01
0,1,0

*BOUNDARY
fixed,1,1,0
fixed,2,2,0
fixed,3,3,0
fixed,4,4,0
fixed,5,5,0
fixed,6,6,0



*STEP
*FREQUENCY
3
*NODE FILE
U
*EL FILE
S
*END STEP
