*node, nset=Nall
1, 0.000000e+00, -2.500000e-02, 0.000000e+00
2, 0.000000e+00, 2.500000e-02, 0.000000e+00
3, 1.000000e-02, 2.500000e-02, 0.000000e+00
4, 1.000000e-02, -2.500000e-02, 0.000000e+00
5, 1.000000e+00, 2.500000e-02, 0.000000e+00
6, 1.000000e+00, -2.500000e-02, 0.000000e+00
7, 1.000000e+00, -1.000000e-01, 0.000000e+00
8, 1.200000e+00, -1.000000e-01, 0.000000e+00
9, 1.200000e+00, 1.000000e-01, 0.000000e+00
10, 1.000000e+00, 1.000000e-01, 0.000000e+00
11, 5.950000e-02, 2.500000e-02, 0.000000e+00
12, 1.090000e-01, 2.500000e-02, 0.000000e+00
13, 1.585000e-01, 2.500000e-02, 0.000000e+00
14, 2.080000e-01, 2.500000e-02, 0.000000e+00
15, 2.575000e-01, 2.500000e-02, 0.000000e+00
16, 3.070000e-01, 2.500000e-02, 0.000000e+00
17, 3.565000e-01, 2.500000e-02, 0.000000e+00
18, 4.060000e-01, 2.500000e-02, 0.000000e+00
19, 4.555000e-01, 2.500000e-02, 0.000000e+00
20, 5.050000e-01, 2.500000e-02, 0.000000e+00
** ... 153 like lines cut
*nset, nset=load
8, 5, 6, 7, 9, 10, 93, 
50, 51, 52, 116, 117, 118, 119, 49, 
114, 115, 53, 54, 55, 120, 121, 122, 
123, 57, 58, 59, 126, 127, 128, 129, 
56, 124, 125, 60, 61, 62, 63, 64, 
65, 66, 67, 68, 149, 150, 151, 152, 
153, 154, 155, 156, 157, 158, 159, 160, 
161, 162, 163, 164, 165, 166, 167, 168, 
169, 170, 171, 172, 173, 
*nset, nset=fixedlines
1, 2, 3, 4, 69, 71, 
*element, elset=S6,type=S6
84, 56, 62, 5, 149, 151, 124, 
*element, elset=Eall,type=S8
62, 2, 3, 4, 1, 70, 71, 72, 69, 
63, 3, 11, 30, 4, 73, 130, 94, 71, 
64, 11, 12, 31, 30, 74, 131, 95, 130, 
65, 12, 13, 32, 31, 75, 132, 96, 131, 
66, 13, 14, 33, 32, 76, 133, 97, 132, 
67, 14, 15, 34, 33, 77, 134, 98, 133, 
68, 15, 16, 35, 34, 78, 135, 99, 134, 
69, 16, 17, 36, 35, 79, 136, 100, 135, 
70, 17, 18, 37, 36, 80, 137, 101, 136, 
71, 18, 19, 38, 37, 81, 138, 102, 137, 
72, 19, 20, 39, 38, 82, 139, 103, 138, 
73, 20, 21, 40, 39, 83, 140, 104, 139, 
74, 21, 22, 41, 40, 84, 141, 105, 140, 
75, 22, 23, 42, 41, 85, 142, 106, 141, 
76, 23, 24, 43, 42, 86, 143, 107, 142, 
77, 24, 25, 44, 43, 87, 144, 108, 143, 
78, 25, 26, 45, 44, 88, 145, 109, 144, 
79, 26, 27, 46, 45, 89, 146, 110, 145, 
80, 27, 28, 47, 46, 90, 147, 111, 146, 
81, 28, 29, 48, 47, 91, 148, 112, 147, 
** ... 17 like lines cut

*elset, elset=beam
63, 64, 65, 66, 67, 68, 69, 
70, 71, 72, 73, 74, 75, 76, 77, 
78, 79, 80, 81, 82, 62, 
*elset, elset=mass
83, 84, 85, 86, 87, 88, 89, 
90, 91, 92, 93, 94, 95, 96, 97, 
98, 99,




*MATERIAL,NAME=steel-no-dens
*ELASTIC
2.0000E+11,0.3


*DENSITY
0.0000E+00




*MATERIAL,NAME=steel
*ELASTIC
2.0000E+11,0.3


*DENSITY
7.8500E+03



*SHELL SECTION,MATERIAL=steel-no-dens,ELSET=beam,,OFFSET=0.0000E+00
5.0000E-02

*SHELL SECTION,MATERIAL=steel,ELSET=mass,,OFFSET=0.0000E+00
2.0000E-01

*BOUNDARY
fixedlines,1,3,0



*STEP
*FREQUENCY,STORAGE=YES
3

**dummy load for proper eig file
*DLOAD
mass, P, 0

  *NODE FILE
U,





*END STEP 
*STEP    
*STEADY STATE DYNAMICS,HARMONIC=YES  
1,15
*MODAL DAMPING
1,3,0.01

*DLOAD
mass, P, 2.500000e+04

  *NODE FILE 
PU,
  *EL FILE
PHS,
*END STEP 
