*NODE, NSET=Nall
       1,0.000000000000e+00,-2.500000000000e-02,0.000000000000e+00
       2,0.000000000000e+00,2.500000000000e-02,0.000000000000e+00
       3,1.000000000000e+00,-2.500000000000e-02,0.000000000000e+00
       4,1.000000000000e+00,2.500000000000e-02,0.000000000000e+00
       5,1.000000000000e+00,-1.000000000000e-01,0.000000000000e+00
       6,1.200000000000e+00,-1.000000000000e-01,0.000000000000e+00
       7,1.200000000000e+00,1.000000000000e-01,0.000000000000e+00
       8,1.000000000000e+00,1.000000000000e-01,0.000000000000e+00
       9,5.000000000000e-02,-2.500000000000e-02,0.000000000000e+00
      10,1.000000000000e-01,-2.500000000000e-02,0.000000000000e+00
      11,1.500000000000e-01,-2.500000000000e-02,0.000000000000e+00
      12,2.000000000000e-01,-2.500000000000e-02,0.000000000000e+00
      13,2.500000000000e-01,-2.500000000000e-02,0.000000000000e+00
      14,3.000000000000e-01,-2.500000000000e-02,0.000000000000e+00
      15,3.500000000000e-01,-2.500000000000e-02,0.000000000000e+00
      16,4.000000000000e-01,-2.500000000000e-02,0.000000000000e+00
      17,4.500000000000e-01,-2.500000000000e-02,0.000000000000e+00
      18,5.000000000000e-01,-2.500000000000e-02,0.000000000000e+00
      19,5.500000000000e-01,-2.500000000000e-02,0.000000000000e+00
      20,6.000000000000e-01,-2.500000000000e-02,0.000000000000e+00
** ... 148 like lines cut
*ELEMENT, TYPE=S8, ELSET=Eall
    59,      2,     28,      9,      1,     88,    125,     68,     67
    60,     28,     29,     10,      9,     89,    126,     69,    125
    61,     29,     30,     11,     10,     90,    127,     70,    126
    62,     30,     31,     12,     11,     91,    128,     71,    127
    63,     31,     32,     13,     12,     92,    129,     72,    128
    64,     32,     33,     14,     13,     93,    130,     73,    129
    65,     33,     34,     15,     14,     94,    131,     74,    130
    66,     34,     35,     16,     15,     95,    132,     75,    131
    67,     35,     36,     17,     16,     96,    133,     76,    132
    68,     36,     37,     18,     17,     97,    134,     77,    133
    69,     37,     38,     19,     18,     98,    135,     78,    134
    70,     38,     39,     20,     19,     99,    136,     79,    135
    71,     39,     40,     21,     20,    100,    137,     80,    136
    72,     40,     41,     22,     21,    101,    138,     81,    137
    73,     41,     42,     23,     22,    102,    139,     82,    138
    74,     42,     43,     24,     23,    103,    140,     83,    139
    75,     43,     44,     25,     24,    104,    141,     84,    140
    76,     44,     45,     26,     25,    105,    142,     85,    141
    77,     45,     46,     27,     26,    106,    143,     86,    142
    78,     46,      4,      3,     27,    107,    108,     87,    143
    79,      8,     55,     60,     54,    121,    145,    144,    120
*ELEMENT, TYPE=S6, ELSET=Eall
    80,     54,     60,      4,    144,    146,    119
*ELEMENT, TYPE=S8, ELSET=Eall
    81,      4,     60,     59,      3,    146,    148,    147,    108
    82,      3,     59,     58,     47,    147,    150,    149,    110
    83,     47,     58,     48,      5,    149,    151,    111,    109
    84,      6,     50,     61,     51,    114,    153,    152,    115
    85,     50,     49,     62,     61,    113,    155,    154,    153
    86,     49,     48,     58,     62,    112,    151,    156,    155
    87,     51,     61,     63,     52,    152,    158,    157,    116
    88,     61,     62,     64,     63,    154,    160,    159,    158
    89,     62,     58,     59,     64,    156,    150,    161,    160
    90,     52,     63,     65,     53,    157,    163,    162,    117
    91,     63,     64,     66,     65,    159,    165,    164,    163
    92,     64,     59,     60,     66,    161,    148,    166,    165
    93,     53,     65,     57,      7,    162,    167,    124,    118
    94,     65,     66,     56,     57,    164,    168,    123,    167
    95,     66,     60,     55,     56,    166,    145,    122,    168

** Names based on load
*NSET,NSET=load 
3, 
4, 
5, 
6, 
7, 
8, 
47, 
48, 
49, 
50, 
51, 
52, 
53, 
54, 
55, 
56, 
57, 
58, 
59, 
60, 
** ... 48 like lines cut
** Names based on mass
*ELSET,ELSET=mass 
79, 
80, 
81, 
82, 
83, 
84, 
85, 
86, 
87, 
88, 
89, 
90, 
91, 
92, 
93, 
94, 
95, 
** Names based on beam
*ELSET,ELSET=beam 
59, 
60, 
61, 
62, 
63, 
64, 
65, 
66, 
67, 
68, 
69, 
70, 
71, 
72, 
73, 
74, 
75, 
76, 
77, 
78, 
** Names based on fixed
*NSET,NSET=fixed 
1, 
2, 
67, 
** Surfaces based on all
*SURFACE, NAME=all
59, SPOS 
78, SPOS 
81, SPOS 
82, SPOS 
80, SPOS 
83, SPOS 
84, SPOS 
93, SPOS 
79, SPOS 
60, SPOS 
61, SPOS 
62, SPOS 
63, SPOS 
64, SPOS 
65, SPOS 
66, SPOS 
67, SPOS 
68, SPOS 
69, SPOS 
70, SPOS 
** ... 17 like lines cut
** Surfaces based on beam
*SURFACE, NAME=beam
** Surfaces based on load
*SURFACE, NAME=load
81, SPOS 
82, SPOS 
80, SPOS 
83, SPOS 
84, SPOS 
93, SPOS 
79, SPOS 
86, SPOS 
85, SPOS 
87, SPOS 
90, SPOS 
95, SPOS 
94, SPOS 
89, SPOS 
92, SPOS 
88, SPOS 
91, SPOS 
** Surfaces based on S6
*SURFACE, NAME=S6
** Surfaces based on fixed
*SURFACE, NAME=fixed
** Surfaces based on mass
*SURFACE, NAME=mass
** Surfaces based on S8R
*SURFACE, NAME=S8R

*MATERIAL,NAME=steel-no-dens
*ELASTIC
2.0000E+11,0.3


*DENSITY
0.0000E+00
*EXPANSION
0.0000E+00



*MATERIAL,NAME=steel
*ELASTIC
2.0000E+11,0.3


*DENSITY
7.8500E+03
*EXPANSION
0.0000E+00


*SHELL SECTION,MATERIAL=steel-no-dens,ELSET=beam,,OFFSET=0.0000E+00
5.0000E-02

*SHELL SECTION,MATERIAL=steel,ELSET=mass,,OFFSET=0.0000E+00
2.0000E-01

*BOUNDARY
fixed,1,1,0
fixed,2,2,0
fixed,3,3,0
fixed,5,5,0

*AMPLITUDE,NAME=Graph1
0,0.0000000E+00,
0.003003,1.8218914E-01,
0.006006,3.5827987E-01,
0.009009,5.2237790E-01,
0.012012,6.6899037E-01,
0.015015,7.9320974E-01,
0.018018,8.9087800E-01,
0.021021,9.5872590E-01,
0.024024,9.9448238E-01,
0.027027,9.9695055E-01,
0.03003,9.6604781E-01,
0.033033,9.0280855E-01,
0.036036,8.0934958E-01,
0.039039,6.8879926E-01,
0.042042,5.4519277E-01,
0.045045,3.8333704E-01,
0.048048,2.0864988E-01,
0.0510511,2.6978573E-02,
0.0540541,-1.5559578E-01,
0.0570571,-3.3296188E-01,
** ... 980 like lines cut


*STEP 
*FREQUENCY,
3





  *NODE FILE
u
  *EL FILE
s
*END STEP 
